8
Lattice="16.0 0.0 0.0 0.0 16.0 0.0 0.0 0.0 16.0" Properties=species:S:1:pos:R:3:forces:R:3 energy=-7.2812062754425275 dipole="0.006866797270872149 -0.004828604217984181 -0.010712714808885884" pbc="F F F"
Na       8.84848171       7.30419917       8.44886566       0.00099615       0.00252377      -0.00037969
Na       4.58159166       9.14402583       7.96268013       0.00193067       0.00282938      -0.00043634
Na       5.89057183       5.96549193       6.92949239       0.00003698       0.00330640       0.00136502
Na       7.30237019      10.02308525       9.87263396       0.00051184       0.00310573      -0.00120953
Na       5.32360784       8.63940973       4.83153621       0.00269127      -0.00709816      -0.00058264
Na       7.75623221      10.23064372       6.64889217      -0.00035796       0.00418183       0.01020878
Na       8.58379355       7.23897207       5.20344607      -0.00766108      -0.00353700      -0.00193646
Na       5.88130047       6.78823441      10.09299972      -0.00155950      -0.00508863      -0.00512908
